Version 4.1
SHEET 1 2180 1132
WIRE 176 160 -48 160
WIRE 352 160 240 160
WIRE 1072 224 1024 224
WIRE 1120 224 1072 224
WIRE 1280 224 1120 224
WIRE 1376 224 1280 224
WIRE 1536 224 1376 224
WIRE 352 240 352 160
WIRE 464 240 352 240
WIRE 560 240 464 240
WIRE 656 240 560 240
WIRE 736 240 656 240
WIRE 1536 240 1536 224
WIRE 1280 256 1280 224
WIRE 1376 256 1376 224
WIRE 464 272 464 240
WIRE 560 272 560 240
WIRE 352 288 352 240
WIRE 1072 288 1072 224
WIRE 1072 288 1024 288
WIRE 1120 288 1120 224
WIRE -48 304 -48 160
WIRE 192 304 -48 304
WIRE 304 304 192 304
WIRE -48 320 -48 304
WIRE 656 336 656 240
WIRE 736 336 656 336
WIRE 1120 352 1024 352
WIRE 352 416 352 384
WIRE -48 496 -48 400
WIRE 192 496 192 384
WIRE 192 496 -48 496
WIRE 352 496 192 496
WIRE 464 496 464 336
WIRE 464 496 352 496
WIRE 560 496 560 336
WIRE 560 496 464 496
WIRE 880 496 880 400
WIRE 880 496 560 496
WIRE 1280 496 1280 320
WIRE 1280 496 880 496
WIRE 1376 496 1376 320
WIRE 1376 496 1280 496
WIRE 1536 496 1536 320
WIRE 1536 496 1376 496
WIRE -48 560 -48 496
FLAG -48 560 0
SYMBOL schottky 176 176 R270
WINDOW 0 32 32 VTop 2
WINDOW 3 0 32 VBottom 2
SYMATTR InstName D1
SYMATTR Value MBRS340
SYMBOL res 208 400 R180
WINDOW 0 36 76 Left 2
WINDOW 3 36 40 Left 2
SYMATTR InstName R1
SYMATTR Value 1000R
SYMBOL Misc\\battery 352 400 R0
WINDOW 123 0 0 Left 0
WINDOW 39 0 0 Left 0
SYMATTR InstName V1
SYMATTR Value 3.7
SYMBOL voltage -48 304 R0
WINDOW 123 0 0 Left 0
WINDOW 39 0 0 Left 0
SYMATTR InstName V2
SYMATTR Value SINE(2.5 2.5 50 1u 1u 0 10)
SYMBOL cap 448 272 R0
SYMATTR InstName C1
SYMATTR Value 10”
SYMBOL cap 544 272 R0
SYMATTR InstName C2
SYMATTR Value 100n
SYMBOL cap 1264 256 R0
SYMATTR InstName C3
SYMATTR Value 100n
SYMBOL cap 1360 256 R0
SYMATTR InstName C4
SYMATTR Value 10”
SYMBOL pmos 304 384 M180
SYMATTR InstName M1
SYMATTR Value Si7137DP
SYMBOL res 1520 224 R0
SYMATTR InstName R2
SYMATTR Value 100R
SYMBOL PowerProducts\\LT1763-3.3 880 288 R0
SYMATTR InstName U1
SYMBOL cap 1104 288 R0
SYMATTR InstName C5
SYMATTR Value 0.1”
TEXT 808 544 Left 2 !.tran 200m
